/*--------------------------------*- C++ -*----------------------------------*\
| =========                 |                                                 |
| \\      /  F ield         | OpenFOAM: The Open Source CFD Toolbox           |
|  \\    /   O peration     | Version:  v2106                                 |
|   \\  /    A nd           | Website:  www.openfoam.com                      |
|    \\/     M anipulation  |                                                 |
\*---------------------------------------------------------------------------*/
FoamFile
{
    version     2.0;
    format      ascii;
    class       dictionary;
    object      dynamicMeshDict;
}
// * * * * * * * * * * * * * * * * * * * * * * * * * * * * * * * * * * * * * //

dynamicFvMesh   dynamicMotionSolverFvMesh; //dynamicMotionSolverFvMeshAMI;

motionSolverLibs (fvMotionSolvers);

motionSolver    solidBody;

cellZone        rotating_region;

solidBodyMotionFunction  rotatingMotion;

origin      (0 0 0);
axis        (1 0 0);
omega       25.23746; // rad/s = 241 rpm

// ************************************************************************* //
