/*--------------------------------*- C++ -*----------------------------------*\
| =========                 |                                                 |
| \\      /  F ield         | OpenFOAM: The Open Source CFD Toolbox           |
|  \\    /   O peration     | Version:  v2106                                 |
|   \\  /    A nd           | Website:  www.openfoam.com                      |
|    \\/     M anipulation  |                                                 |
\*---------------------------------------------------------------------------*/
FoamFile
{
    version     2.0;
    format      ascii;
    class       dictionary;
    object      controlDict;
}
// * * * * * * * * * * * * * * * * * * * * * * * * * * * * * * * * * * * * * //

libs            (overset fvMotionSolvers);

application     overPimpleDyMFoam;

startFrom       latestTime; // firstTime startTime latestTime

startTime       0;

stopAt          endTime; // endTime writeNow noWriteNow nextWrite

endTime         0.49;

deltaT          0.05;

adjustTimeStep  no; // yes no

maxCo           1;

maxDeltaT       1e-3;

writeControl    runTime; // timeStep runTime adjustableRunTime cpuTime clockTime

writeInterval   1e-3;

purgeWrite      0; // 1

writeFormat     binary; // ascii binary

writePrecision  6;

writeCompression off;

timeFormat      general;

timePrecision   6;

graphFormat     raw;

runTimeModifiable true;

functions
{
    #include "CFLno"
    #include "forces"
    #include "sampling_HWA"
    #include "sampling_PIV"
    #include "yPlus"
}


// ************************************************************************* //
