/*--------------------------------*- C++ -*----------------------------------*\
| =========                 |                                                 |
| \\      /  F ield         | OpenFOAM: The Open Source CFD Toolbox           |
|  \\    /   O peration     | Version:  v2106                                 |
|   \\  /    A nd           | Website:  www.openfoam.com                      |
|    \\/     M anipulation  |                                                 |
\*---------------------------------------------------------------------------*/
FoamFile
{
    version     2.0;
    format      ascii;
    class       dictionary;
    object      fvSolution;
}
// * * * * * * * * * * * * * * * * * * * * * * * * * * * * * * * * * * * * * //

solvers
{
    cellDisplacement
    {
        solver          PCG;
        preconditioner  DIC;
        tolerance       1e-06;
        relTol          0;
        maxIter         100;
    }

    p
    {
        solver          PBiCGStab;
        preconditioner  DILU;
        tolerance       1e-6;
        relTol          0;
    }

    pFinal
    {
        $p;
        relTol          0;
    }

    pcorr
    {
        $pFinal;
        solver          PCG;
        preconditioner  DIC;
    }

    pcorrFinal
    {
        $pcorr;
        relTol          0;
    }

    "(U|k|epsilon|omega)"
    {
        solver          smoothSolver;
        smoother        symGaussSeidel;
        tolerance       1e-6;
        relTol          0;
    }

    "(U|k|epsilon|omega)Final"
    {
        $U;
        tolerance       1e-6;
        relTol          0;
    }
    
    // for the advectionDiffusion wallDist method
    yPsi
    {
        solver          PBiCGStab;
        preconditioner  DILU;
        tolerance       1e-4;
        relTol          0;
    }
    /*
    yWall
    {
        solver          PBiCGStab;
        preconditioner  DILU;
        tolerance       1e-4;
        relTol          0;
    }*/
}

PIMPLE
{
    momentumPredictor   true;
    correctPhi          false;  //true;
    oversetAdjustPhi    false;
    nOuterCorrectors    50;
    nCorrectors         2;
    nNonOrthogonalCorrectors 1;

    ddtCorr             true;
    
    residualControl
    {
        p
        {
            tolerance       1e-4;
            relTol          0;
        }
        
        U
        {
            tolerance       1e-5;
            relTol          0;
        }
    }
}

relaxationFactors
{
   fields
   {
   }
   equations
   {
       ".*"             1;
   }
}

// ************************************************************************* //
