/*--------------------------------*- C++ -*----------------------------------*\
| =========                 |                                                 |
| \\      /  F ield         | OpenFOAM: The Open Source CFD Toolbox           |
|  \\    /   O peration     | Version:  v2106                                 |
|   \\  /    A nd           | Website:  www.openfoam.com                      |
|    \\/     M anipulation  |                                                 |
\*---------------------------------------------------------------------------*/
FoamFile
{
    version     2.0;
    format      ascii;
    class       dictionary;
    object      setFieldsDict;
}
// * * * * * * * * * * * * * * * * * * * * * * * * * * * * * * * * * * * * * //

defaultFieldValues
(
    volScalarFieldValue zoneID 123
);

regions
(
    // foreground
    cellToCell
    {
        set region0;

        fieldValues
        (
            volScalarFieldValue zoneID 1
        );
    }

    // background
    cellToCell
    {
        set region1;

        fieldValues
        (
            volScalarFieldValue zoneID 0
        );
    }
);


// ************************************************************************* //
