/*--------------------------------*- C++ -*----------------------------------*\
| =========                 |                                                 |
| \\      /  F ield         | OpenFOAM: The Open Source CFD Toolbox           |
|  \\    /   O peration     | Version:  v2106                                 |
|   \\  /    A nd           | Website:  www.openfoam.com                      |
|    \\/     M anipulation  |                                                 |
\*---------------------------------------------------------------------------*/
FoamFile
{
    version     2.0;
    format      ascii;
    class       volVectorField;
    object      U;
}
// * * * * * * * * * * * * * * * * * * * * * * * * * * * * * * * * * * * * * //

dimensions      [0 1 -1 0 0 0 0];

internalField   uniform (4.19 0 0);

boundaryField
{
    inlet
    {
        type            fixedValue;
        value           uniform (4.19 0 0);
    }
    outlet
    {
        type            inletOutlet;
        inletValue      uniform (0 0 0);
        value           uniform (0 0 0);
    }
    sides
    {
        type            slip;
    }
    rotor
    {
        type            movingWallVelocity;
        value           uniform (0 0 0);
    }
    ami_in
    {
        type            cyclicAMI;
    }
    ami_out
    {
        type            cyclicAMI;
        //value           $internalField;
    }
}

// ************************************************************************* //
